18
XYZ file generated by Avogadro.
C           -0.982669699724    -0.237178346654     0.048840332285
C           -0.903199699724    -1.619248346654     0.120150332285
C           -2.056649699724    -2.359718346654     0.332270332285
C           -3.284569699724    -1.735108346654     0.471540332285
C           -3.357939699724    -0.352998346654     0.396620332285
C           -2.212559699724     0.395071653346     0.186760332285
N            1.811440300276    -0.458798346654    -0.314779667715
SE           0.542970300276     0.875401653346    -0.252869667715
H            4.492660300276     0.976761653346     0.674450332285
H            3.720360300276    -0.995018346654    -0.135949667715
C            3.011930300276    -0.185018346654    -0.057719667715
N            3.583620300276     1.011821653346     0.268740332285
H            2.992740300276     1.722421653346     0.648150332285
H           -4.172619699724    -2.316158346654     0.635270332285
H           -2.282239699724     1.466621653346     0.131150332285
H            0.043810300276    -2.105918346654     0.008140332285
H           -1.990729699724    -3.430678346654     0.386880332285
H           -4.304079699724     0.144771653346     0.501220332285
